# Define the lattice
#
variable	    lattice_constant equal 6.36339
lattice		    diamond 6.36339
Lattice spacing in x,y,z = 6.36339 6.36339 6.36339

# Define region
# multiples of lattice spacing
#
region 		    simbox block 0 8 0 8 0 8

# Create Atoms
#
create_box          1 simbox
Created orthogonal box = (0 0 0) to (50.9071 50.9071 50.9071)
create_atoms        1 box
Created 4096 atoms
mass                1 18.015

# Define potential
#
pair_style          sw
pair_coeff          * * MLmW_metal.sw mW
Reading potential file MLmW_metal.sw with DATE: 2019-02-27

# Add velocity/set timestep
#
velocity            all create 230 120598 rot yes dist gaussian
timestep            0.005

# Define output
#
compute	            1 all msd
thermo              50
thermo_style        custom step temp press vol etotal ke pe c_1[4]

# Neighbor lists
#
neigh_modify        delay 0 every 1 check yes

# Set fixes
#
fix                 1 all momentum 10 linear 1 1 1 rescale
fix                 2 all npt temp 230 230 1000.0 iso 1 1 2500.0

# Run 1 ns equilibration
#
dump		    1 all custom 1000 eq.ice_230K_1atm_ML_metal.dump id type x y z vx vy vz
run                 200000
  update every 1 steps, delay 0 steps, check yes
Step Temp Press Volume TotEng KinEng PotEng c_1[4]
0          230    15673.818    131927.58   -1524.5025    121.74367   -1646.2461            0
Averages over the last 2001 of 4001 rows, steps 100000 to 200000:
Temp Press Volume TotEng KinEng PotEng c_1[4]
257.338 -335.665 127104 -1530.94 136.214 -1667.16 1861.91
Loop time of 314.696 on 12 procs for 200000 steps with 4096 atoms

undump              1
unfix               2

################################################
#######         Run Simulation         #########
################################################

reset_timestep      0
log                 log.run_ice_230K_1atm_ML_metal
