# Define the lattice
#
variable	    lattice_constant equal 6.36339
lattice		    diamond 6.36339
Lattice spacing in x,y,z = 6.36339 6.36339 6.36339

# Define region
# multiples of lattice spacing
#
region 		    simbox block 0 8 0 8 0 8

# Create Atoms
#
create_box          1 simbox
Created orthogonal box = (0 0 0) to (50.9071 50.9071 50.9071)
create_atoms        1 box
Created 4096 atoms
mass                1 18.015

# Define potential
#
pair_style          sw
pair_coeff          * * ML_mW.sw mW
Reading potential file ML_mW.sw with DATE: 2019-02-27

# Add velocity/set timestep
#
velocity            all create 230 120598 rot yes dist gaussian
timestep            5.0

# Define output
#
compute	            1 all msd
thermo              50
thermo_style        custom step temp press vol etotal ke pe c_1[4]

# Neighbor lists
#
neigh_modify        delay 0 every 1 check yes

# Set fixes
#
fix                 1 all momentum 10 linear 1 1 1 rescale
fix                 2 all npt temp 230 230 1000.0 iso 1 1 2500.0

# Run 0.1 ns equilibration
#
dump		    1 all custom 1000 eq.ice_230K_1atm_ML_npt.dump id type x y z vx vy vz
run                 20000
  update every 1 steps, delay 0 steps, check yes
Step Temp Press Volume TotEng KinEng PotEng c_1[4]
0          230    15468.852    131927.58   -35155.852    2807.4759   -37963.328            0
Averages over the last 201 of 401 rows, steps 10000 to 20000:
Temp Press Volume TotEng KinEng PotEng c_1[4]
230.28 7.7706 113887 -36613.7 2810.9 -39424.6 120.737
Loop time of 31.3406 on 12 procs for 20000 steps with 4096 atoms

undump              1
unfix               2

################################################
#######         Run Simulation         #########
################################################

reset_timestep      0
log                 log.run_ice_230K_1atm_ML_npt
