# Create simulation box of size 50 x 50 x 50 Angstrom
#
lattice	            sc 1
Lattice spacing in x,y,z = 1 1 1
region 	            all block 0 50 0 50 0 50 units box
create_box          1 all
Created orthogonal box = (0 0 0) to (50 50 50)

# fill box with 4169 randomly distributed atoms
#
create_atoms        1 random 4169 63782 all
Created 4169 atoms
mass                1 18.015

# Define potential
#
pair_style          sw
pair_coeff          * * ML_mW.sw mW
Reading potential file ML_mW.sw with DATE: 2019-02-27

# Run minimization
#
minimize            1.0e-8 1.0e-8 10000 1000
  update every 1 steps, delay 0 steps, check yes
Step Temp E_pair E_mol TotEng Press
0            0    7740182.7            0    7740182.7    5859286.2
Loop time of 1.21639 on 11 procs for 627 steps with 4169 atoms

Minimization stats:
  Stopping criterion = max force evaluations
  Energy initial, next-to-last, final =
  Force two-norm initial, final = 2.01918e+08 4.12292
  Force max component initial, final = 1.09487e+08 1.08313
  Final line search alpha, max atom move = 0.0412462 0.0446751
  Iterations, force evaluations = 627 1001

# Add velocity/set timestep
#
velocity            all create 298 120598 rot yes dist gaussian
timestep            5.0

# Define output
#
compute	            1 all msd
thermo	            100
thermo_style        custom step temp press vol etotal ke pe c_1[4] density

# Neighbor lists
#
neigh_modify        delay 0 every 1 check yes

# Set fixes
#
fix                 1 all momentum 10 linear 1 1 1 rescale
fix                 2 all nve
fix                 3 all temp/csvr 298 298 500.0 928347
fix                 4 all press/berendsen iso 1 1 1000.0 modulus 20000

# Run 0.5 ns equilibration
#
dump                1 all custom 1000 eq.liquid_298K_1atm_ML.dump id type x y z vx vy vz
run                 100000
Step Temp Press Volume TotEng KinEng PotEng c_1[4] Density
627          298    1190.5547       125000   -41461.491    3702.3569   -45163.848 4.3566023e-33   0.99771203
Averages over the last 501 of 1002 rows, steps 50700 to 100627:
Temp Press Volume TotEng KinEng PotEng c_1[4] Density
297.773 5.32087 125021 -36939.4 3699.54 -40638.9 1001.06 0.997551
Loop time of 124.507 on 11 procs for 100000 steps with 4169 atoms

undump              1
unfix               2
unfix               3
unfix               4

################################################
#######         Run Simulation         #########
################################################

reset_timestep      0
log                 log.run_liquid_298K_1atm_ML
