# Create simulation box of size 50 x 50 x 50 Angstrom
#
lattice	            sc 1
Lattice spacing in x,y,z = 1.0000000 1.0000000 1.0000000
region 	            all block 0 50 0 50 0 50 units box
create_box          1 all
Created orthogonal box = (0.0000000 0.0000000 0.0000000) to (50.000000 50.000000 50.000000)

# fill box with 4175 randomly distributed atoms
#
create_atoms        1 random 4175 63782 all
Created 4175 atoms
mass                1 18.015

# Define potential
#
pair_style          sw
pair_coeff          * * ML_mW.sw mW
Reading sw potential file ML_mW.sw with DATE: 2019-02-27

# Run minimization
#
minimize            1.0e-8 1.0e-8 10000 1000
  update every 1 steps, delay 0 steps, check yes
Step Temp E_pair E_mol TotEng Press
0            0    7792709.3            0    7792709.3    5898794.3
Loop time of 7.36763 on 1 procs for 631 steps with 4175 atoms

Minimization stats:
  Stopping criterion = max force evaluations
  Energy initial, next-to-last, final =
  Force two-norm initial, final = 2.0191930e+08 4.4741522
  Force max component initial, final = 1.0948746e+08 1.0165594
  Final line search alpha, max atom move = 0.045182713 0.045930911
  Iterations, force evaluations = 631 1000

# Add velocity/set timestep
#
velocity            all create 205 120598 rot yes dist gaussian
timestep            5.0

# Define output
#
compute	            1 all msd
thermo	            100
thermo_style        custom step temp press vol etotal ke pe c_1[4] density

# Neighbor lists
#
neigh_modify        delay 0 every 1 check yes

# Set fixes
#
fix                 1 all momentum 10 linear 1 1 1 rescale
fix                 2 all nve
fix                 3 all temp/csvr 205 205 500.0 928347
fix                 4 all press/berendsen iso -300 -300 1000.0 modulus 20000

# Run 0.5 ns equilibration
#
dump                1 all custom 1000 eq.liquid_density_MLmW.dump id type x y z vx vy vz
run                 100000
Step Temp Press Volume TotEng KinEng PotEng c_1[4] Density
631          205    802.16775       125000   -42587.596    2550.5897   -45138.185            0   0.99914793
Averages over the last 501 of 1002 rows, steps 50700 to 100631:
Temp Press Volume TotEng KinEng PotEng c_1[4] Density
204.837 -300.233 134794 -42049 2548.56 -44597.5 24.1023 0.926554
Loop time of 461.921 on 1 procs for 100000 steps with 4175 atoms

undump              1
unfix               2
unfix               3
unfix               4

################################################
#######         Run Simulation         #########
################################################

reset_timestep      0
log                 log.run_liquid_density_MLmW
