# Create simulation box of size 30 x 30 x 30 Angstrom
#
lattice	            sc 1
Lattice spacing in x,y,z = 1 1 1
region 	            all block 0 30 0 30 0 30 units box
create_box          1 all
Created orthogonal box = (0 0 0) to (30 30 30)

# fill box with 900 randomly distributed atoms
#
create_atoms        1 random 900 63782 all
Created 900 atoms
mass                1 18.015

# Define potential
#
pair_style          sw
pair_coeff          * * ML_mW.sw mW
Reading potential file ML_mW.sw with DATE: 2019-02-27

# Run minimization
#
minimize            1.0e-8 1.0e-8 10000 1000
  update every 1 steps, delay 0 steps, check yes
Step Temp E_pair E_mol TotEng Press
0            0    604000.32            0    604000.32    2206283.4
Loop time of 0.354648 on 12 procs for 542 steps with 900 atoms

Minimization stats:
  Stopping criterion = energy tolerance
  Energy initial, next-to-last, final =
  Force two-norm initial, final = 6.82258e+06 0.0592546
  Force max component initial, final = 4.67398e+06 0.011025
  Final line search alpha, max atom move = 1 0.011025
  Iterations, force evaluations = 542 971

# Add velocity/set timestep
#
velocity            all create 298 120598 rot yes dist gaussian
timestep            10.0

# Define output
#
compute	            1 all msd
thermo	            5000
thermo_style        custom step temp press vol etotal ke pe c_1[4] density

# Neighbor lists
#
neigh_modify        delay 0 every 1 check yes

# Set fixes
#
fix                 1 all momentum 10 linear 1 1 1 rescale
fix                 2 all nve
fix                 3 all temp/csvr 298 298 500.0 928347
fix                 4 all press/berendsen iso 1 1 1000.0 modulus 20000

# Run 1 ns equilibration
#
dump                1 all custom 5000 eq.water.water_box_298K_1atm_ML.dump id type x y z vx vy vz
run                 100000
Step Temp Press Volume TotEng KinEng PotEng c_1[4] Density
542          298   -2522.4998        27000   -8410.1937    798.56497   -9208.7587            0   0.99715362
Averages over the last 11 of 22 rows, steps 55000 to 100542:
Temp Press Volume TotEng KinEng PotEng c_1[4] Density
298.462 -98.3398 26783.5 -7487.39 799.803 -8287.19 2635.97 1.00525
Loop time of 36.5275 on 12 procs for 100000 steps with 900 atoms

undump              1
unfix               2
unfix               3
unfix               4

################################################
#######         Run Simulation         #########
################################################

reset_timestep      0
log                 log.run_water_box_298K_1atm_ML
