# Create simulation box of size ~25 x 30 x 30 Angstrom
#
lattice	            sc 1
Lattice spacing in x,y,z = 1 1 1
region 	            all block 0 25 0 30 0 30 units box
create_box          1 all
Created orthogonal box = (0 0 0) to (25 30 30)

# fill box with randomly distributed atoms
#
create_atoms        1 random 782 63782 all
Created 782 atoms
mass                1 18.015

# Define potential
#
pair_style          sw
pair_coeff          * * ML_mW.sw mW
Reading potential file ML_mW.sw with DATE: 2019-02-27

# Run minimization
#
minimize            1.0e-8 1.0e-8 10000 1000
  update every 1 steps, delay 0 steps, check yes
Step Temp E_pair E_mol TotEng Press
0            0    613605.49            0    613605.49    2668637.3
Loop time of 0.20617 on 12 procs for 359 steps with 782 atoms

Minimization stats:
  Stopping criterion = energy tolerance
  Energy initial, next-to-last, final =
  Force two-norm initial, final = 6.98491e+06 0.0531005
  Force max component initial, final = 4.80218e+06 0.00748492
  Final line search alpha, max atom move = 1 0.00748492
  Iterations, force evaluations = 359 621

# Add velocity/set timestep
#
velocity            all create 280 120598 rot yes dist gaussian
timestep            10.0

# Define output
#
compute	            1 all msd
thermo	            5000
thermo_style        custom step temp press vol etotal ke pe c_1[4]

# Neighbor lists
#
neigh_modify        delay 0 every 1 check yes

# Set fixes
#
fix                 1 all momentum 10 linear 1 1 1 rescale
fix                 2 all nve
fix                 3 all temp/csvr 280 280 500.0 928347
fix                 4 all press/berendsen iso 1 1 1000.0 modulus 20000

# Run 1 ns equilibration
#
dump                1 all custom 5000 eq.water.water_box_280K_1atm_ML.dump id type x y z vx vy vz
run                 100000
Step Temp Press Volume TotEng KinEng PotEng c_1[4]
359          280   -2426.7176        22500   -7425.2056    651.84354   -8077.0492 6.3048346e-35
Averages over the last 11 of 22 rows, steps 55000 to 100359:
Temp Press Volume TotEng KinEng PotEng c_1[4]
276.732 -43.8869 22859.8 -6637.08 644.237 -7281.31 2153.68
Loop time of 32.8552 on 12 procs for 100000 steps with 782 atoms

undump              1
unfix               2
unfix               3
unfix               4

################################################
#######         Run Simulation         #########
################################################

reset_timestep      0
log                 log.run_water_box_280K_1atm_ML
