# Create simulation box of size 50 x 50 x 50 Angstrom
#
lattice	            sc 1
Lattice spacing in x,y,z = 1.0000000 1.0000000 1.0000000
region 	            all block 0 50 0 50 0 100 units box
create_box          1 all
Created orthogonal box = (0.0000000 0.0000000 0.0000000) to (50.000000 50.000000 100.00000)

# fill box with 8100 randomly distributed atoms 0.0324 N/A^3
#
create_atoms        1 random 8100 63782 all
Created 8100 atoms
mass                1 18.015

# Define potential
#
pair_style          sw
pair_coeff          * * ML_mW.sw mW
Reading sw potential file ML_mW.sw with DATE: 2019-02-27

# Run minimization
#
minimize            1.0e-8 1.0e-8 10000 1000
  update every 1 steps, delay 0 steps, check yes
Step Temp E_pair E_mol TotEng Press
0            0     11585155            0     11585155    4417861.6
Loop time of 2.52544 on 6 procs for 716 steps with 8100 atoms

Minimization stats:
  Stopping criterion = max force evaluations
  Energy initial, next-to-last, final =
  Force two-norm initial, final = 75990135.0 5.8482951
  Force max component initial, final = 29145356.0 0.73490545
  Final line search alpha, max atom move = 0.03760564 0.02763659
  Iterations, force evaluations = 716 1000

# Add velocity/set timestep
#
velocity            all create 225 120598 rot yes dist gaussian
timestep            5.0

# Define output
#
compute	            1 all msd
thermo	            100
thermo_style        custom step temp press vol etotal ke pe c_1[4] density

# Neighbor lists
#
neigh_modify        delay 0 every 1 check yes

# Set fixes
#
fix                 1 all momentum 10 linear 1 1 1 rescale
fix                 2 all nve
fix                 3 all temp/csvr 225 225 500.0 928347
fix                 4 all press/berendsen iso 1 1 1000.0 modulus 20000

# Run 0.25 ns equilibration
#
dump                1 all custom 1000 eq.slab_225K_1atm.dump id type x y z vx vy vz
run                 50000
Step Temp Press Volume TotEng KinEng PotEng c_1[4] Density
716          225    400.49229       250000   -81717.362    5431.8556   -87149.218 1.4054477e-33   0.96923332
Averages over the last 251 of 502 rows, steps 25800 to 50716:
Temp Press Volume TotEng KinEng PotEng c_1[4] Density
224.829 5.66273 249579 -78017.9 5427.72 -83445.6 85.8353 0.97087
Loop time of 95.8947 on 6 procs for 50000 steps with 8100 atoms

undump              1
unfix               2
unfix               3
unfix               4

# Cut out the Slab
#
region		    top block INF INF INF INF 72 INF side in
delete_atoms	    region top
Deleted 2278 atoms, new total = 5822

################################################
#######         Run Simulation         #########
################################################

reset_timestep      0
log                 log.run_slab_225K_1atm
