# Read in the atoms from data file
#
read_data           out-240K.data
  orthogonal box = (0 0 0) to (35.9897 31.168 29.3854)
  reading atoms ...
  1024 atoms
  reading velocities ...
  1024 velocities

mass                1 18.015

# Define potential
#
pair_style          sw
pair_coeff          * * mW_real.sw mW
Reading potential file mW_real.sw with DATE: 2019-02-27

# Add velocity/set timestep
#
velocity            all create 289 120598 rot yes dist gaussian
timestep            5.0

# Define output
#
compute	            1 all msd
thermo              50
thermo_style        custom step temp press vol etotal ke pe c_1[4]

# Neighbor lists
#
neigh_modify        delay 0 every 1 check yes

# Set fixes
#
fix                 2 all nve
fix                 3 all temp/csvr 289 289 500.0 928347
fix                 4 all press/berendsen iso 1 1 1000.0 modulus 20000

# Run 0.5 ns equilibration
#
dump		    1 all custom 1000 eq.ice_240K_1atm_mW.dump id type x y z vx vy vz
run                 100000
  update every 1 steps, delay 0 steps, check yes
Step Temp Press Volume TotEng KinEng PotEng c_1[4]
0          289   -4032.2515    32962.426   -11081.002    881.26755    -11962.27            0
Averages over the last 1001 of 2001 rows, steps 50000 to 100000:
Temp Press Volume TotEng KinEng PotEng c_1[4]
288.182 0.391893 31341 -10804 878.772 -11682.8 0.502511
Loop time of 31.7216 on 12 procs for 100000 steps with 1024 atoms

undump              1
unfix               2
unfix               3
unfix               4

################################################
#######         Run Simulation         #########
################################################

reset_timestep      0
log                 log.run_ice_240K_1atm_mW
