# Create simulation box of size 50 x 50 x 50 Angstrom
#
lattice	            sc 1
Lattice spacing in x,y,z = 1 1 1
region 	            all block 0 50 0 50 0 50 units box
create_box          1 all
Created orthogonal box = (0 0 0) to (50 50 50)

# fill box with 4175 randomly distributed atoms
#
create_atoms        1 random 4175 63782 all
Created 4175 atoms
mass                1 18.015

# Define potential
#
pair_style          sw
pair_coeff          * * ML_mW.sw mW
Reading potential file ML_mW.sw with DATE: 2019-02-27

# Run minimization
#
minimize            1.0e-8 1.0e-8 10000 1000
  update every 1 steps, delay 0 steps, check yes
Step Temp E_pair E_mol TotEng Press
0            0      7789167            0      7789167      5896198
Loop time of 1.24957 on 11 procs for 641 steps with 4175 atoms

Minimization stats:
  Stopping criterion = max force evaluations
  Energy initial, next-to-last, final =
  Force two-norm initial, final = 2.01919e+08 4.45948
  Force max component initial, final = 1.09487e+08 1.20936
  Final line search alpha, max atom move = 0.0524375 0.0634159
  Iterations, force evaluations = 641 1001

# Add velocity/set timestep
#
velocity            all create 289 120598 rot yes dist gaussian
timestep            5.0

# Define output
#
compute	            1 all msd
thermo	            100
thermo_style        custom step temp press vol etotal ke pe c_1[4] density

# Neighbor lists
#
neigh_modify        delay 0 every 1 check yes

# Set fixes
#
fix                 1 all momentum 10 linear 1 1 1 rescale
fix                 2 all nve
fix                 3 all temp/csvr 289 289 500.0 928347
fix                 4 all press/berendsen iso 1 1 1000.0 modulus 20000

# Run 0.5 ns equilibration
#
dump                1 all custom 1000 eq.liquid_289K_1atm_ML.dump id type x y z vx vy vz
run                 100000
Step Temp Press Volume TotEng KinEng PotEng c_1[4] Density
641          289    1143.1396       125000   -41620.651    3595.7094    -45216.36 1.5881145e-33   0.99914793
Averages over the last 501 of 1002 rows, steps 50700 to 100641:
Temp Press Volume TotEng KinEng PotEng c_1[4] Density
288.812 -0.609084 125154 -37315.4 3593.37 -40908.8 920.876 0.997923
Loop time of 124.034 on 11 procs for 100000 steps with 4175 atoms

undump              1
unfix               2
unfix               3
unfix               4

################################################
#######         Run Simulation         #########
################################################

reset_timestep      0
log                 log.run_liquid_289K_1atm_ML
