# Define the lattice
#
variable	    lattice_constant equal 6.2045
lattice		    diamond 6.2045
Lattice spacing in x,y,z = 6.2045 6.2045 6.2045

# Define region
# multiples of lattice spacing
#
region 		    simbox block 0 4 0 5 0 5

# Create Atoms
#
create_box          1 simbox
Created orthogonal box = (0 0 0) to (24.818 31.0225 31.0225)
create_atoms        1 box
Created 800 atoms
mass                1 18.015

# Define potential
#
pair_style          sw
pair_coeff          * * ML_mW.sw mW
Reading potential file ML_mW.sw with DATE: 2019-02-27

# Add velocity/set timestep
#
velocity            all create 270 120598 rot yes dist gaussian
timestep            10.0

# Define output
#
compute	            1 all msd
thermo              50
thermo_style        custom step temp press vol etotal ke pe c_1[4]

# Neighbor lists
#
neigh_modify        delay 0 every 1 check yes

# Set fixes
#
fix                 1 all momentum 10 linear 1 1 1 rescale
fix                 2 all nve
fix                 3 all temp/csvr 270 270 500.0 928347
fix                 4 all press/berendsen iso 1 1 1000.0 modulus 20000

# Run 1 ns equilibration
#
dump		    1 all atom 1000 eq.ice_box_270K_1atm.dump
run	            100000
  update every 1 steps, delay 0 steps, check yes
Step Temp Press Volume TotEng KinEng PotEng c_1[4]
0          270    27657.516    23884.732   -6216.7097    643.05015   -6859.7599            0
Averages over the last 1001 of 2001 rows, steps 50000 to 100000:
Temp Press Volume TotEng KinEng PotEng c_1[4]
268.751 -6.46917 23067.2 -6862.68 640.075 -7502.76 1841.19
Loop time of 38.4592 on 10 procs for 100000 steps with 800 atoms

undump              1
unfix               2
unfix               3
unfix               4

# Define Order parameter
#
compute             2 all orientorder/atom nnn NULL cutoff 3.5
thermo              1000
thermo_style        custom step temp press vol etotal ke pe c_1[4]

################################################
#######         Run Simulation         #########
################################################

log                 log.run_ice_box_270K_1atm
