# Create simulation box of size 50 x 50 x 50 Angstrom
#
lattice	            sc 1
Lattice spacing in x,y,z = 1 1 1
region 	            all block 0 50 0 50 0 100 units box
create_box          1 all
Created orthogonal box = (0 0 0) to (50 50 100)

# fill box with 4175 randomly distributed atoms
#
create_atoms        1 random 8350 63782 all
Created 8350 atoms
mass                1 18.015

# Define potential
#
pair_style          sw
pair_coeff          * * ML_mW.sw mW
Reading potential file ML_mW.sw with DATE: 2019-02-27

# Run minimization
#
minimize            1.0e-8 1.0e-8 10000 1000
  update every 1 steps, delay 0 steps, check yes
Step Temp E_pair E_mol TotEng Press
0            0     11872759            0     11872759    4534518.1
Loop time of 2.26967 on 12 procs for 690 steps with 8350 atoms

Minimization stats:
  Stopping criterion = max force evaluations
  Energy initial, next-to-last, final =
  Force two-norm initial, final = 7.60366e+07 9.33719
  Force max component initial, final = 2.91454e+07 1.56181
  Final line search alpha, max atom move = 0.0389471 0.060828
  Iterations, force evaluations = 690 1001

# Add velocity/set timestep
#
velocity            all create 289 120398 rot yes dist gaussian
timestep            5.0

# Define output
#
compute	            1 all msd
thermo	            100
thermo_style        custom step temp press vol etotal ke pe c_1[4] density

# Neighbor lists
#
neigh_modify        delay 0 every 1 check yes

# Set fixes
#
fix                 1 all momentum 10 linear 1 1 1 rescale
fix                 2 all nve
fix                 3 all temp/csvr 289 289 500.0 928347
fix                 4 all press/berendsen iso 1 1 1000.0 modulus 20000

# Run 0.25 ns equilibration
#
dump                1 all custom 1000 eq.slab_289K_halfindent.dump id type x y z vx vy vz
run                 50000
Step Temp Press Volume TotEng KinEng PotEng c_1[4] Density
690          289    1140.5057       250000   -83159.921    7192.2803   -90352.201 6.871214e-33   0.99914793
Averages over the last 251 of 502 rows, steps 25700 to 50690:
Temp Press Volume TotEng KinEng PotEng c_1[4] Density
288.768 -6.64533 250272 -74635.2 7186.5 -81821.7 457.053 0.998063
Loop time of 123.679 on 12 procs for 50000 steps with 8350 atoms

undump              1
unfix               2
unfix               3
unfix               4

# Cut out the Slab
#
region		    top block INF INF INF INF 14 86 side out
delete_atoms	    region top
Deleted 2345 atoms, new total = 6005

# Add the barrier (top indentor only)
#
fix                 5 all indent 10.0 plane z 86.0 hi
# fix                 6 all indent 10.0 plane z 14.0 lo

################################################
#######         Run Simulation         #########
################################################

reset_timestep      0
log                 log.run_slab_289K_halfindent_hi
